.model Q2N696 NPN (IS=14.34F  XTI=3  EG=1.11  VAF= 74.03  BF=65.62  
+NE=1.208  ISE=19.48F  IKF=.2385  XTB=1.5  BR=9.715  NC=2  ISC=0  IKR=0  
+RC=1  CJC=9.393P MJC=.3416  VJC=.75  FC=.5  CJE=22.01P  MJE=.377  
+VJE=.75  TR=58.98N  TF=408.8P  ITF=.6  VTF=1.7  XTF=3  RB = 10)
